iidm/iidm-serde/src/test/resources/topologyLevelVoltageLevels.xml
<?xml version="1.0" encoding="UTF-8"?>
<iidm:network xmlns:iidm="http://www.powsybl.org/schema/iidm/1_18" id="testCase11" caseDate="2022-07-26T13:56:23.057+02:00" forecastDistance="0" sourceFormat="test" minimumValidationLevel="STEADY_STATE_HYPOTHESIS">
    <iidm:dcNode id="dcNode1" nominalV="500.0"/>
    <iidm:dcNode id="dcNode2" nominalV="500.0"/>
    <iidm:substation id="subst" name="subst" country="FR">
        <iidm:voltageLevel id="vl1" name="vl1" nominalV="380.0" topologyKind="BUS_BREAKER">
            <iidm:busBreakerTopology>
                <iidm:bus id="vl1_0" name="vl1_0"/>
                <iidm:bus id="vl1_1" name="vl1_1"/>
                <iidm:bus id="vl1_2" name="vl1_2"/>
                <iidm:bus id="vl1_3" name="vl1_3"/>
                <iidm:bus id="vl1_4" name="vl1_4"/>
                <iidm:bus id="vl1_6" name="vl1_6"/>
                <iidm:bus id="vl1_8" name="vl1_8"/>
                <iidm:bus id="vl1_10" name="vl1_10"/>
                <iidm:bus id="vl1_19" name="vl1_19"/>
                <iidm:bus id="vl1_21" name="vl1_21"/>
                <iidm:bus id="vl1_23" name="vl1_23"/>
                <iidm:bus id="vl1_25" name="vl1_25"/>
                <iidm:bus id="vl1_27" name="vl1_27"/>
                <iidm:bus id="vl1_29" name="vl1_29"/>
                <iidm:bus id="vl1_31" name="vl1_31"/>
                <iidm:bus id="vl1_33" name="vl1_33"/>
                <iidm:bus id="vl1_35" name="vl1_35"/>
                <iidm:switch id="dtrct11" name="dtrct11" fictitious="true" kind="BREAKER" retained="true" open="false" bus1="vl1_0" bus2="vl1_1"/>
                <iidm:switch id="dtrct21" name="dtrct21" fictitious="true" kind="BREAKER" retained="true" open="false" bus1="vl1_2" bus2="vl1_3"/>
                <iidm:switch id="bload1" name="bload1" fictitious="true" kind="BREAKER" retained="true" open="false" bus1="vl1_4" bus2="vl1_0"/>
                <iidm:switch id="bgen1" name="bgen1" fictitious="true" kind="BREAKER" retained="true" open="false" bus1="vl1_6" bus2="vl1_2"/>
                <iidm:switch id="bload2" name="bload2" fictitious="true" kind="BREAKER" retained="true" open="false" bus1="vl1_8" bus2="vl1_1"/>
                <iidm:switch id="bgen2" name="bgen2" fictitious="true" kind="BREAKER" retained="true" open="false" bus1="vl1_10" bus2="vl1_3"/>
                <iidm:switch id="btrf11" name="btrf11" fictitious="true" kind="BREAKER" retained="true" open="false" bus1="vl1_0" bus2="vl1_19"/>
                <iidm:switch id="btrf12" name="btrf12" fictitious="true" kind="BREAKER" retained="true" open="false" bus1="vl1_1" bus2="vl1_21"/>
                <iidm:switch id="btrf13" name="btrf13" fictitious="true" kind="BREAKER" retained="true" open="false" bus1="vl1_2" bus2="vl1_23"/>
                <iidm:switch id="btrf14" name="btrf14" fictitious="true" kind="BREAKER" retained="true" open="false" bus1="vl1_3" bus2="vl1_25"/>
                <iidm:switch id="btrf15" name="btrf15" fictitious="true" kind="BREAKER" retained="true" open="false" bus1="vl1_0" bus2="vl1_27"/>
                <iidm:switch id="btrf16" name="btrf16" fictitious="true" kind="BREAKER" retained="true" open="false" bus1="vl1_0" bus2="vl1_29"/>
                <iidm:switch id="btrf17" name="btrf17" fictitious="true" kind="BREAKER" retained="true" open="false" bus1="vl1_2" bus2="vl1_31"/>
                <iidm:switch id="btrf18" name="btrf18" fictitious="true" kind="BREAKER" retained="true" open="false" bus1="vl1_1" bus2="vl1_33"/>
                <iidm:switch id="bline11_2" name="bline11_2" fictitious="true" kind="BREAKER" retained="true" open="false" bus1="vl1_0" bus2="vl1_35"/>
            </iidm:busBreakerTopology>
            <iidm:generator id="gen1" name="gen1" energySource="OTHER" minP="0.0" maxP="20.0" targetP="10.0" localTargetQ="10.0" bus="vl1_6" connectableBus="vl1_6">
                <iidm:minMaxReactiveLimits minQ="-1.7976931348623157E308" maxQ="1.7976931348623157E308"/>
            </iidm:generator>
            <iidm:generator id="gen2" name="gen2" energySource="OTHER" minP="0.0" maxP="20.0" targetP="10.0" localTargetQ="10.0" bus="vl1_10" connectableBus="vl1_10">
                <iidm:minMaxReactiveLimits minQ="-1.7976931348623157E308" maxQ="1.7976931348623157E308"/>
            </iidm:generator>
            <iidm:load id="load1" name="load1" loadType="UNDEFINED" p0="10.0" q0="10.0" bus="vl1_4" connectableBus="vl1_4"/>
            <iidm:load id="load2" name="load2" loadType="UNDEFINED" p0="10.0" q0="10.0" bus="vl1_8" connectableBus="vl1_8"/>
        </iidm:voltageLevel>
        <iidm:voltageLevel id="vl2" name="vl2" nominalV="225.0" topologyKind="BUS_BREAKER">
            <iidm:busBreakerTopology>
                <iidm:bus id="vl2_0" name="vl2_0"/>
                <iidm:bus id="vl2_1" name="vl2_1"/>
                <iidm:bus id="vl2_2" name="vl2_2"/>
                <iidm:bus id="vl2_4" name="vl2_4"/>
                <iidm:bus id="vl2_9" name="vl2_9"/>
                <iidm:bus id="vl2_11" name="vl2_11"/>
                <iidm:bus id="vl2_13" name="vl2_13"/>
                <iidm:bus id="vl2_15" name="vl2_15"/>
                <iidm:bus id="vl2_17" name="vl2_17"/>
                <iidm:bus id="vl2_19" name="vl2_19"/>
                <iidm:bus id="vl2_21" name="vl2_21"/>
                <iidm:switch id="ddcpl1" name="ddcpl1" fictitious="true" kind="BREAKER" retained="true" open="false" bus1="vl2_0" bus2="vl2_1"/>
                <iidm:switch id="bload3" name="bload3" fictitious="true" kind="BREAKER" retained="true" open="false" bus1="vl2_2" bus2="vl2_0"/>
                <iidm:switch id="bgen4" name="bgen4" fictitious="true" kind="BREAKER" retained="true" open="false" bus1="vl2_4" bus2="vl2_1"/>
                <iidm:switch id="btrf21" name="btrf21" fictitious="true" kind="BREAKER" retained="true" open="false" bus1="vl2_0" bus2="vl2_9"/>
                <iidm:switch id="btrf22" name="btrf22" fictitious="true" kind="BREAKER" retained="true" open="false" bus1="vl2_1" bus2="vl2_11"/>
                <iidm:switch id="btrf23" name="btrf23" fictitious="true" kind="BREAKER" retained="true" open="false" bus1="vl2_1" bus2="vl2_13"/>
                <iidm:switch id="btrf24" name="btrf24" fictitious="true" kind="BREAKER" retained="true" open="false" bus1="vl2_0" bus2="vl2_15"/>
                <iidm:switch id="btrf26" name="btrf26" fictitious="true" kind="BREAKER" retained="true" open="false" bus1="vl2_1" bus2="vl2_17"/>
                <iidm:switch id="btrf27" name="btrf27" fictitious="true" kind="BREAKER" retained="true" open="false" bus1="vl2_0" bus2="vl2_19"/>
                <iidm:switch id="btrf28" name="btrf28" fictitious="true" kind="BREAKER" retained="true" open="false" bus1="vl2_1" bus2="vl2_21"/>
            </iidm:busBreakerTopology>
            <iidm:generator id="gen4" name="gen4" energySource="OTHER" minP="0.0" maxP="20.0" targetP="10.0" localTargetQ="10.0" bus="vl2_4" connectableBus="vl2_4">
                <iidm:minMaxReactiveLimits minQ="-1.7976931348623157E308" maxQ="1.7976931348623157E308"/>
            </iidm:generator>
            <iidm:load id="load3" name="load3" loadType="UNDEFINED" p0="10.0" q0="10.0" bus="vl2_2" connectableBus="vl2_2"/>
        </iidm:voltageLevel>
        <iidm:voltageLevel id="vl3" name="vl3" nominalV="50.0" topologyKind="NODE_BREAKER">
            <iidm:nodeBreakerTopology>
                <iidm:busbarSection id="bbs7" name="bbs7" node="0"/>
                <iidm:switch id="dload4" name="dload4" fictitious="true" kind="DISCONNECTOR" open="false" node1="0" node2="2"/>
                <iidm:switch id="bload4" name="bload4" fictitious="true" kind="BREAKER" retained="true" open="false" node1="2" node2="1"/>
                <iidm:switch id="dtrf25" name="dtrf25" fictitious="true" kind="DISCONNECTOR" open="false" node1="0" node2="3"/>
                <iidm:switch id="btrf25" name="btrf25" fictitious="true" kind="BREAKER" retained="true" open="false" node1="3" node2="4"/>
                <iidm:switch id="dtrf36" name="dtrf36" fictitious="true" kind="DISCONNECTOR" open="false" node1="0" node2="5"/>
                <iidm:switch id="btrf36" name="btrf36" fictitious="true" kind="BREAKER" retained="true" open="false" node1="5" node2="6"/>
                <iidm:switch id="dtrf37" name="dtrf37" fictitious="true" kind="DISCONNECTOR" open="false" node1="0" node2="7"/>
                <iidm:switch id="btrf37" name="btrf37" fictitious="true" kind="BREAKER" retained="true" open="false" node1="7" node2="8"/>
                <iidm:switch id="dtrf38" name="dtrf38" fictitious="true" kind="DISCONNECTOR" open="false" node1="0" node2="9"/>
                <iidm:switch id="btrf38" name="btrf38" fictitious="true" kind="BREAKER" retained="true" open="false" node1="9" node2="10"/>
            </iidm:nodeBreakerTopology>
            <iidm:load id="load4" name="load4" loadType="UNDEFINED" p0="10.0" q0="10.0" node="1"/>
        </iidm:voltageLevel>
        <iidm:twoWindingsTransformer id="trf1" name="trf1" r="2.0" x="14.745" b="3.2E-5" ratedU1="400.0" ratedU2="225.0" voltageLevelId1="vl1" bus1="vl1_19" connectableBus1="vl1_19" voltageLevelId2="vl2" bus2="vl2_9" connectableBus2="vl2_9"/>
        <iidm:twoWindingsTransformer id="trf2" name="trf2" r="2.0" x="14.745" b="3.2E-5" ratedU1="400.0" ratedU2="225.0" voltageLevelId1="vl1" bus1="vl1_21" connectableBus1="vl1_21" voltageLevelId2="vl2" bus2="vl2_11" connectableBus2="vl2_11"/>
        <iidm:twoWindingsTransformer id="trf3" name="trf3" r="2.0" x="14.745" b="3.2E-5" ratedU1="400.0" ratedU2="225.0" voltageLevelId1="vl1" bus1="vl1_23" connectableBus1="vl1_23" voltageLevelId2="vl2" bus2="vl2_13" connectableBus2="vl2_13"/>
        <iidm:twoWindingsTransformer id="trf4" name="trf4" r="2.0" x="14.745" b="3.2E-5" ratedU1="400.0" ratedU2="225.0" voltageLevelId1="vl1" bus1="vl1_25" connectableBus1="vl1_25" voltageLevelId2="vl2" bus2="vl2_15" connectableBus2="vl2_15"/>
        <iidm:twoWindingsTransformer id="trf5" name="trf5" r="2.0" x="14.745" b="3.2E-5" ratedU1="400.0" ratedU2="225.0" voltageLevelId1="vl1" bus1="vl1_27" connectableBus1="vl1_27" voltageLevelId2="vl3" node2="4"/>
        <iidm:threeWindingsTransformer id="trf6" name="trf6" r1="0.5" x1="1.0" g1="0.1" b1="0.1" ratedU1="400.0" r2="0.5" x2="1.0" ratedU2="225.0" r3="0.5" x3="1.0" ratedU3="50.0" ratedU0="400.0" voltageLevelId1="vl1" bus1="vl1_29" connectableBus1="vl1_29" voltageLevelId2="vl2" bus2="vl2_17" connectableBus2="vl2_17" voltageLevelId3="vl3" node3="6"/>
        <iidm:threeWindingsTransformer id="trf7" name="trf7" r1="0.5" x1="1.0" g1="0.1" b1="0.1" ratedU1="400.0" r2="0.5" x2="1.0" ratedU2="225.0" r3="0.5" x3="1.0" ratedU3="50.0" ratedU0="400.0" voltageLevelId1="vl1" bus1="vl1_31" connectableBus1="vl1_31" voltageLevelId2="vl2" bus2="vl2_19" connectableBus2="vl2_19" voltageLevelId3="vl3" node3="8"/>
        <iidm:threeWindingsTransformer id="trf8" name="trf8" r1="0.5" x1="1.0" g1="0.1" b1="0.1" ratedU1="400.0" r2="0.5" x2="1.0" ratedU2="225.0" r3="0.5" x3="1.0" ratedU3="50.0" ratedU0="400.0" voltageLevelId1="vl1" bus1="vl1_33" connectableBus1="vl1_33" voltageLevelId2="vl2" bus2="vl2_21" connectableBus2="vl2_21" voltageLevelId3="vl3" node3="10"/>
    </iidm:substation>
    <iidm:substation id="subst2" name="subst2" country="FR">
        <iidm:voltageLevel id="vlSubst2" name="vlSubst2" nominalV="380.0" topologyKind="NODE_BREAKER">
            <iidm:nodeBreakerTopology>
                <iidm:busbarSection id="bbs1_2" name="bbs1_2" node="0"/>
                <iidm:switch id="dline21_2" name="dline21_2" fictitious="true" kind="DISCONNECTOR" open="false" node1="0" node2="1"/>
                <iidm:switch id="bline21_2" name="bline21_2" fictitious="true" kind="BREAKER" retained="true" open="false" node1="1" node2="2"/>
            </iidm:nodeBreakerTopology>
        </iidm:voltageLevel>
    </iidm:substation>
    <iidm:substation id="S_DC_Converter">
        <iidm:voltageLevel id="VL_DC_Converter" nominalV="400.0" topologyKind="BUS_BREAKER">
            <iidm:busBreakerTopology>
                <iidm:bus id="VL_DC_Converter_0" v="402.0" angle="12.3"/>
                <iidm:bus id="VL_DC_Converter_1"/>
            </iidm:busBreakerTopology>
            <iidm:voltageSourceConverter id="vsc" name="VSC" dcNode1="dcNode1" dcConnected1="true" dcNode2="dcNode2" dcConnected2="true" idleLoss="3.0" switchingLoss="0.3" resistiveLoss="3.0E-6" controlMode="P_PCC" targetP="302.0" targetVdc="503.0" bus1="VL_DC_Converter_0" connectableBus1="VL_DC_Converter_0" bus2="VL_DC_Converter_1" connectableBus2="VL_DC_Converter_1">
                <iidm:pccTerminal id="line2" side="TWO"/>
                <iidm:minMaxReactiveLimits minQ="-200.0" maxQ="210.0"/>
                <iidm:voltageRegulation mode="VOLTAGE" regulating="true" targetValue="397.0">
                    <iidm:terminalRef id="line2" side="TWO"/>
                </iidm:voltageRegulation>
            </iidm:voltageSourceConverter>
        </iidm:voltageLevel>
    </iidm:substation>
    <iidm:line id="line1" name="line1" r="2.0" x="14.745" g1="1.0" b1="1.0" g2="1.0" b2="1.0" voltageLevelId1="vl1" bus1="vl1_35" connectableBus1="vl1_35" voltageLevelId2="vlSubst2" node2="2"/>
    <iidm:line id="line2" r="0.0" x="3.0" voltageLevelId1="VL_DC_Converter" bus1="VL_DC_Converter_0" connectableBus1="VL_DC_Converter_0" voltageLevelId2="VL_DC_Converter" bus2="VL_DC_Converter_1" connectableBus2="VL_DC_Converter_1"/>
</iidm:network>
